data/case_rts96_dyn_java.m
%% [hostetje] This is the same as 'case_rts96_dyn.m' except that there are
%% only 3 values of .zone in the bus list. We obtain these from the
%% most-significant digit in the original .zone value.

function ps = case_rts96_dyn_java


ps.casename = 'rts96';
ps.baseMVA = 100.000000;


ps.bus = [...
%ID     type    Pd  Qd Gs   Bs area   Vmag Vang baseKV zone     Vmax Vmin lam_P lam_Q mu_Vx mu_Vn locX locY delta_sys num_feeders
101 	2 		108 22 	0 	0 	11 		1 	0 	138 	1 		1.1 	0.9    0 0 0 0 0 0 0  0;
102 	2 		97  20 	0 	0 	11 		1 	0 	138 	1 		1.1 	0.9    0 0 0 0 0 0 0  0;
103 	1 		180 37 	0 	0 	11 		1 	0 	138 	1 		1.1 	0.9    0 0 0 0 0 0 0  0;
104 	1 		74  15 	0 	0 	11 		1 	0 	138 	1 		1.1 	0.9    0 0 0 0 0 0 0  0;
105 	1 		71  14 	0 	0 	11 		1 	0 	138 	1 		1.1 	0.9    0 0 0 0 0 0 0  0;
106 	1 		136 28 	0 	1 	11 		1 	0 	138 	1 		1.1 	0.9    0 0 0 0 0 0 0  0;
107 	2 		125 25 	0 	0 	11 		1 	0 	138 	1 		1.1 	0.9    0 0 0 0 0 0 0  0;
108 	1 		171 35 	0 	0 	11 		1 	0 	138 	1 		1.1 	0.9    0 0 0 0 0 0 0  0;
109 	1 		175 36 	0 	0 	11 		1 	0 	138 	1 		1.1 	0.9    0 0 0 0 0 0 0  0;
110 	1 		195 40 	0 	0 	11 		1 	0 	138 	1 		1.1 	0.9    0 0 0 0 0 0 0  0;
111 	1 		0   0  	0 	0 	11 		1 	0 	230 	1 		1.1 	0.9    0 0 0 0 0 0 0  0;
112 	1 		0   0  	0 	0 	11 		1 	0 	230 	1 		1.1 	0.9    0 0 0 0 0 0 0  0;
113 	3 		265 54 	0 	0 	12 		1 	0 	230 	1 		1.1 	0.9    0 0 0 0 0 0 0  0;
114 	2 		194 39 	0 	0 	12 		1 	0 	230 	1 		1.1 	0.9    0 0 0 0 0 0 0  0;
115 	2 		317 64 	0 	0 	12 		1 	0 	230 	1 		1.1 	0.9    0 0 0 0 0 0 0  0;
116 	2 		100 20 	0 	0 	12 		1 	0 	230 	1 		1.1 	0.9    0 0 0 0 0 0 0  0;
117 	1 		0   0  	0 	0 	12 		1 	0 	230 	1 		1.1 	0.9    0 0 0 0 0 0 0  0;
118 	2 		333 68 	0 	0 	12 		1 	0 	230 	1 		1.1 	0.9    0 0 0 0 0 0 0  0;
119 	1 		181 37 	0 	0 	12 		1 	0 	230 	1 		1.1 	0.9    0 0 0 0 0 0 0  0;
120 	1 		128 26 	0 	0 	12 		1 	0 	230 	1 		1.1 	0.9    0 0 0 0 0 0 0  0;
121 	2 		0   0  	0 	0 	12 		1 	0 	230 	1 		1.1 	0.9    0 0 0 0 0 0 0  0;
122 	2 		0   0  	0 	0 	12 		1 	0 	230 	1 		1.1 	0.9    0 0 0 0 0 0 0  0;
123 	2 		0   0  	0 	0 	12 		1 	0 	230 	1 		1.1 	0.9    0 0 0 0 0 0 0  0;
124 	1 		0   0  	0 	0 	12 		1 	0 	230 	1 		1.1 	0.9    0 0 0 0 0 0 0  0;     
201 	2 		108 22 	0 	0 	21 		1 	0 	138 	2 		1.1 	0.9    0 0 0 0 0 0 0  0;
202 	2 		97  20 	0 	0 	21 		1 	0 	138 	2 		1.1 	0.9    0 0 0 0 0 0 0  0;
203 	1 		180 37 	0 	0 	21 		1 	0 	138 	2 		1.1 	0.9    0 0 0 0 0 0 0  0;
204 	1 		74  15 	0 	0 	21 		1 	0 	138 	2 		1.1 	0.9    0 0 0 0 0 0 0  0;
205 	1 		71  14 	0 	0 	21 		1 	0 	138 	2 		1.1 	0.9    0 0 0 0 0 0 0  0;
206 	1 		136 28 	0 	1 	21 		1 	0 	138 	2 		1.1 	0.9    0 0 0 0 0 0 0  0;
207 	2 		125 25 	0 	0 	21 		1 	0 	138 	2 		1.1 	0.9    0 0 0 0 0 0 0  0;
208 	1 		171 35 	0 	0 	21 		1 	0 	138 	2 		1.1 	0.9    0 0 0 0 0 0 0  0;
209 	1 		175 36 	0 	0 	21 		1 	0 	138 	2 		1.1 	0.9    0 0 0 0 0 0 0  0;
210 	1 		195 40 	0 	0 	21 		1 	0 	138 	2 		1.1 	0.9    0 0 0 0 0 0 0  0;
211 	1 		0   0  	0 	0 	21 		1 	0 	230 	2 		1.1 	0.9    0 0 0 0 0 0 0  0;
212 	1 		0   0  	0 	0 	21 		1 	0 	230 	2 		1.1 	0.9    0 0 0 0 0 0 0  0;
213 	2 		265 54 	0 	0 	22 		1 	0 	230 	2 		1.1 	0.9    0 0 0 0 0 0 0  0;
214 	2 		194 39 	0 	0 	22 		1	0 	230	 	2 		1.1 	0.9    0 0 0 0 0 0 0  0;
215 	2 		317 64 	0 	0 	22 		1 	0 	230 	2 		1.1 	0.9    0 0 0 0 0 0 0  0;
216 	2 		100 20 	0 	0 	22 		1 	0 	230 	2 		1.1 	0.9    0 0 0 0 0 0 0  0;
217 	1 		0   0  	0 	0 	22 		1 	0 	230 	2 		1.1 	0.9    0 0 0 0 0 0 0  0;
218 	2 		333 68 	0 	0 	22 		1 	0 	230 	2 		1.1 	0.9    0 0 0 0 0 0 0  0;
219 	1 		181 37 	0 	0 	22 		1 	0 	230 	2 		1.1 	0.9    0 0 0 0 0 0 0  0;
220 	1 		128 26 	0 	0 	22 		1 	0 	230 	2 		1.1 	0.9    0 0 0 0 0 0 0  0;
221 	2 		0   0  	0 	0 	22 		1 	0 	230 	2 		1.1 	0.9    0 0 0 0 0 0 0  0;
222 	2 		0   0  	0 	0 	22 		1 	0 	230 	2 		1.1 	0.9    0 0 0 0 0 0 0  0;
223 	2 		0   0  	0 	0 	22 		1 	0 	230 	2 		1.1 	0.9    0 0 0 0 0 0 0  0;
224 	1 		0   0  	0 	0 	22 		1 	0 	230 	2 		1.1 	0.9    0 0 0 0 0 0 0  0;
301 	2 		108 22 	0 	0 	31 		1 	0 	138 	3 		1.1 	0.9    0 0 0 0 0 0 0  0;
302 	2 		97  20 	0 	0 	31 		1 	0 	138 	3 		1.1 	0.9    0 0 0 0 0 0 0  0;
303 	1 		180 37 	0 	0 	31 		1 	0 	138 	3 		1.1 	0.9    0 0 0 0 0 0 0  0;
304 	1 		74  15 	0 	0 	31 		1 	0 	138 	3 		1.1 	0.9    0 0 0 0 0 0 0  0;
305 	1 		71  14 	0 	0 	31 		1 	0 	138 	3 		1.1 	0.9    0 0 0 0 0 0 0  0;
306 	1 		136 28 	0 	1 	31 		1 	0 	138 	3 		1.1 	0.9    0 0 0 0 0 0 0  0;
307 	2 		125 25 	0 	0 	31 		1 	0 	138 	3 		1.1 	0.9    0 0 0 0 0 0 0  0;
308 	1 		171 35 	0 	0 	31 		1 	0 	138 	3 		1.1 	0.9    0 0 0 0 0 0 0  0;
309 	1 		175 36 	0 	0 	31 		1 	0 	138 	3 		1.1 	0.9    0 0 0 0 0 0 0  0;
310 	1 		195 40 	0 	0 	31 		1 	0 	138 	3 		1.1 	0.9    0 0 0 0 0 0 0  0;
311 	1 		0   0  	0 	0 	31 		1 	0 	230 	3 		1.1 	0.9    0 0 0 0 0 0 0  0;
312 	1 		0   0  	0 	0 	31 		1 	0 	230 	3 		1.1 	0.9    0 0 0 0 0 0 0  0;
313 	2 		265 54 	0 	0 	32 		1 	0 	230 	3 		1.1 	0.9    0 0 0 0 0 0 0  0;
314 	2 		194 39 	0 	0 	32 		1 	0 	230 	3 		1.1 	0.9    0 0 0 0 0 0 0  0;
315 	2 		317 64 	0 	0 	32 		1 	0 	230 	3 		1.1 	0.9    0 0 0 0 0 0 0  0;
316 	2 		100 20 	0 	0 	32 		1 	0 	230 	3 		1.1 	0.9    0 0 0 0 0 0 0  0;
317 	1 		0   0  	0 	0 	32 		1 	0 	230 	3 		1.1 	0.9    0 0 0 0 0 0 0  0;
318 	2 		333 68 	0 	0 	32 		1 	0 	230 	3 		1.1 	0.9    0 0 0 0 0 0 0  0;
319 	1 		181 37 	0 	0 	32 		1 	0 	230 	3 		1.1 	0.9    0 0 0 0 0 0 0  0;
320 	1 		128 26 	0 	0 	32 		1 	0 	230 	3 		1.1 	0.9    0 0 0 0 0 0 0  0;
321 	2 		0   0  	0 	0 	32 		1 	0 	230 	3 		1.1 	0.9    0 0 0 0 0 0 0  0;
322 	2 		0   0  	0 	0 	32 		1 	0 	230 	3 		1.1 	0.9    0 0 0 0 0 0 0  0;
323 	2 		0   0  	0 	0 	32 		1 	0 	230 	3 		1.1 	0.9    0 0 0 0 0 0 0  0;
324 	1 		0   0  	0 	0 	32 		1 	0 	230 	3 		1.1 	0.9    0 0 0 0 0 0 0  0;
325 	1 		0   0  	0 	0 	32 		1 	0 	230 	3 		1.1 	0.9    0 0 0 0 0 0 0  0;
];


ps.branch = [...
%	from	to      R		X		B		rateA	rateB	rateC	tap    shift   status Pf Qf Pt Qt mu_f mu_t Imag_f Imag_t switchable prob_fail lineloss type id 
    101 	102 	0.0026 	0.0139 0.4611 	193 	200 	200 	0 		0 		1      0 0 0 0 0 0 0 0 0 0 0 0 1;
    101 	103 	0.0546 	0.2112 0.0572 	208 	220 	220 	0 		0 		1      0 0 0 0 0 0 0 0 0 0 0 0 2;
    101 	105 	0.0218 	0.0845 0.0229 	208 	220 	220 	0 		0 		1      0 0 0 0 0 0 0 0 0 0 0 0 3;
    102 	104 	0.0328 	0.1267 0.0343 	208 	220 	220 	0 		0 		1      0 0 0 0 0 0 0 0 0 0 0 0 4;
    102 	106 	0.0497 	0.1920 0.0520 	208 	220 	220 	0 		0 		1      0 0 0 0 0 0 0 0 0 0 0 0 5;
    103 	109 	0.0308 	0.1190 0.0322 	208 	220 	220 	0 		0 		1      0 0 0 0 0 0 0 0 0 0 0 0 6;
    103 	124 	0.0023 	0.0839 0.0000 	510 	600 	600 	1.015 	0 		1      0 0 0 0 0 0 0 0 0 0 0 0 7;
    104 	109 	0.0268 	0.1037 0.0281 	208 	220 	220 	0 		0 		1      0 0 0 0 0 0 0 0 0 0 0 0 8;
    105 	110 	0.0228 	0.0883 0.0239 	208 	220 	220		0 		0 		1      0 0 0 0 0 0 0 0 0 0 0 0 9;
    106 	110 	0.0139 	0.0605 2.4590 	193 	200 	200 	0 		0 		1      0 0 0 0 0 0 0 0 0 0 0 0 10;
    107 	108 	0.0159 	0.0614 0.0166 	208 	220 	220 	0 		0 		1      0 0 0 0 0 0 0 0 0 0 0 0 11;
    107 	203 	0.0420 	0.1610 0.0440 	208 	220 	220 	0 		0		1      0 0 0 0 0 0 0 0 0 0 0 0 12;
    108 	109 	0.0427 	0.1651 0.0447 	208 	220 	220 	0 		0 		1      0 0 0 0 0 0 0 0 0 0 0 0 13;
    108 	110 	0.0427 	0.1651 0.0447 	208 	220 	220 	0 		0 		1      0 0 0 0 0 0 0 0 0 0 0 0 14;
    109 	111 	0.0023 	0.0839 0.0000 	510 	600 	600 	1.03 	0 		1      0 0 0 0 0 0 0 0 0 0 0 0 15;
    109 	112 	0.0023 	0.0839 0.0000 	510 	600 	600 	1.03 	0 		1      0 0 0 0 0 0 0 0 0 0 0 0 16;
    110 	111 	0.0023 	0.0839 0.0000 	510 	600 	600 	1.015 	0 		1      0 0 0 0 0 0 0 0 0 0 0 0 17;
    110 	112 	0.0023 	0.0839 0.0000 	510 	600 	600 	1.015 	0 		1      0 0 0 0 0 0 0 0 0 0 0 0 18;
    111 	113 	0.0061 	0.0476 0.0999 	600 	625 	625 	0 		0 		1      0 0 0 0 0 0 0 0 0 0 0 0 19;
    111 	114 	0.0054 	0.0418 0.0879 	600 	625 	625 	0 		0 		1      0 0 0 0 0 0 0 0 0 0 0 0 20;
    112 	113 	0.0061 	0.0476 0.0999 	600 	625 	625 	0 		0 		1      0 0 0 0 0 0 0 0 0 0 0 0 21;
    112 	123 	0.0124 	0.0966 0.2030 	600 	625 	625 	0 		0 		1      0 0 0 0 0 0 0 0 0 0 0 0 22;
    113 	123 	0.0111 	0.0865 0.1818 	600 	625 	625 	0 		0 		1      0 0 0 0 0 0 0 0 0 0 0 0 23;
    113 	215 	0.0100	0.0750 0.1580 	600 	625 	625 	0 		0 		1      0 0 0 0 0 0 0 0 0 0 0 0 24;
    114 	116 	0.0050	0.0389 0.0818 	600 	625 	625 	0 		0 		1      0 0 0 0 0 0 0 0 0 0 0 0 25;
    115 	116 	0.0022 	0.0173 0.0364 	600 	625 	625 	0 		0 		1      0 0 0 0 0 0 0 0 0 0 0 0 26;
    115 	121 	0.0063 	0.0490 0.1030 	600 	625 	625 	0 		0 		1      0 0 0 0 0 0 0 0 0 0 0 0 27;
    115 	121 	0.0063 	0.0490 0.1030 	600 	625 	625 	0 		0 		1      0 0 0 0 0 0 0 0 0 0 0 0 28;
    115 	124 	0.0067 	0.0519 0.1091 	600 	625 	625 	0 		0 		1      0 0 0 0 0 0 0 0 0 0 0 0 29;
    116 	117 	0.0033 	0.0259 0.0545 	600 	625 	625 	0 		0 		1      0 0 0 0 0 0 0 0 0 0 0 0 30;
    116 	119 	0.0030 	0.0231 0.0485 	600 	625 	625 	0 		0 		1      0 0 0 0 0 0 0 0 0 0 0 0 31;
    117 	118 	0.0018 	0.0144 0.0303 	600 	625 	625 	0 		0 		1      0 0 0 0 0 0 0 0 0 0 0 0 32;
    117 	122 	0.0135 	0.1053 0.2212 	600 	625 	625 	0 		0 		1      0 0 0 0 0 0 0 0 0 0 0 0 33;
    118 	121 	0.0033 	0.0259 0.0545 	600 	625 	625 	0 		0 		1      0 0 0 0 0 0 0 0 0 0 0 0 34;
    118 	121 	0.0033 	0.0259 0.0545 	600 	625 	625 	0 		0 		1      0 0 0 0 0 0 0 0 0 0 0 0 35;
    119 	120 	0.0051 	0.0396 0.0833 	600 	625 	625 	0 		0 		1      0 0 0 0 0 0 0 0 0 0 0 0 36;
    119 	120 	0.0051 	0.0396 0.0833 	600 	625 	625 	0 		0 		1      0 0 0 0 0 0 0 0 0 0 0 0 37;
    120 	123 	0.0028 	0.0216 0.0455 	600 	625 	625 	0 		0 		1      0 0 0 0 0 0 0 0 0 0 0 0 38;
    120 	123 	0.0028 	0.0216 0.0455 	600 	625 	625 	0 		0 		1      0 0 0 0 0 0 0 0 0 0 0 0 39;
    121 	122 	0.0087 	0.0678 0.1424 	600 	625 	625 	0 		0 		1      0 0 0 0 0 0 0 0 0 0 0 0 40;
    123 	217 	0.0100 	0.0740 0.1550 	600 	625 	625 	0 		0 		1      0 0 0 0 0 0 0 0 0 0 0 0 41;
    201 	202 	0.0026 	0.0139 0.4611 	208 	220 	220 	0 		0 		1      0 0 0 0 0 0 0 0 0 0 0 0 42;
    201 	203 	0.0546 	0.2112 0.0572 	208 	220 	220 	0 		0 		1      0 0 0 0 0 0 0 0 0 0 0 0 43;
    201 	205 	0.0218 	0.0845 0.0229 	208 	220 	220 	0 		0 		1      0 0 0 0 0 0 0 0 0 0 0 0 44;
    202 	204 	0.0328 	0.1267 0.0343 	208 	220 	220 	0 		0 		1      0 0 0 0 0 0 0 0 0 0 0 0 45;
    202 	206 	0.0497 	0.1920 0.0520 	208 	220 	220 	0 		0 		1      0 0 0 0 0 0 0 0 0 0 0 0 46;
    203 	209 	0.0308 	0.1190 0.0322 	208 	220 	220 	0 		0 		1      0 0 0 0 0 0 0 0 0 0 0 0 47;
    203 	224 	0.0023 	0.0839 0.000  	510 	600 	600 	1.015 	0 		1      0 0 0 0 0 0 0 0 0 0 0 0 48;
    204 	209 	0.0268 	0.1037 0.0281 	208 	220 	220 	0 		0 		1      0 0 0 0 0 0 0 0 0 0 0 0 49;
    205 	210 	0.0228 	0.0883 0.0239 	208 	220 	220 	0 		0 		1      0 0 0 0 0 0 0 0 0 0 0 0 50;
    206 	210 	0.0139	0.0605 2.4590 	193 	200 	200 	0 		0 		1      0 0 0 0 0 0 0 0 0 0 0 0 51;
    207 	208 	0.0159 	0.0614 0.0166 	208 	220 	220 	0 		0 		1      0 0 0 0 0 0 0 0 0 0 0 0 52;
    208 	209 	0.0427 	0.1651 0.0447 	208 	220 	220 	0 		0 		1      0 0 0 0 0 0 0 0 0 0 0 0 53;
    208 	210 	0.0427 	0.1651 0.0447 	208 	220 	220 	0 		0	 	1      0 0 0 0 0 0 0 0 0 0 0 0 54;
    209 	211 	0.0023 	0.0839 0.0000 	510 	600 	600 	1.03 	0 		1      0 0 0 0 0 0 0 0 0 0 0 0 55;
    209 	212 	0.0023 	0.0839 0.0000 	510 	600 	600 	1.03 	0 		1      0 0 0 0 0 0 0 0 0 0 0 0 56;
    210 	211 	0.0023 	0.0839 0.0000 	510 	600 	600 	1.015 	0 		1      0 0 0 0 0 0 0 0 0 0 0 0 57;
    210 	212 	0.0023 	0.0839 0.0000 	510 	600 	600 	1.015 	0 		1      0 0 0 0 0 0 0 0 0 0 0 0 58;
    211 	213 	0.0061 	0.0476 0.0999 	600 	625 	625 	0 		0 		1      0 0 0 0 0 0 0 0 0 0 0 0 59;
    211 	214 	0.0054 	0.0418 0.0879 	600 	625 	625 	0 		0 		1      0 0 0 0 0 0 0 0 0 0 0 0 60;
    212 	213 	0.0061 	0.0476 0.0999 	600 	625 	625 	0 		0 		1      0 0 0 0 0 0 0 0 0 0 0 0 61;
    212 	223 	0.0124 	0.0966 0.2030 	600 	625 	625 	0 		0 		1      0 0 0 0 0 0 0 0 0 0 0 0 62;
    213 	223 	0.0111 	0.0865 0.1818 	600 	625 	625 	0 		0 		1      0 0 0 0 0 0 0 0 0 0 0 0 63;
    214 	216 	0.0050 	0.0389 0.0818 	600 	625 	625 	0 		0 		1      0 0 0 0 0 0 0 0 0 0 0 0 64;
    215 	216 	0.0022 	0.0173 0.0364 	600 	625 	625 	0 		0 		1      0 0 0 0 0 0 0 0 0 0 0 0 65;
    215 	221 	0.0063 	0.0490 0.1030 	600 	625 	625 	0 		0 		1      0 0 0 0 0 0 0 0 0 0 0 0 66;
    215 	221 	0.0063 	0.0490 0.1030 	600 	625 	625 	0 		0 		1      0 0 0 0 0 0 0 0 0 0 0 0 67;
    215 	224 	0.0067 	0.0519 0.1091 	600 	625 	625 	0 		0		1      0 0 0 0 0 0 0 0 0 0 0 0 68;
    216 	217 	0.0033 	0.0259 0.0545 	600 	625 	625 	0 		0 		1      0 0 0 0 0 0 0 0 0 0 0 0 69;
    216 	219 	0.0030 	0.0231 0.0485 	600 	625	 	625 	0 		0 		1      0 0 0 0 0 0 0 0 0 0 0 0 70;
    217 	218 	0.0018 	0.0144 0.0303 	600 	625 	625 	0 		0 		1      0 0 0 0 0 0 0 0 0 0 0 0 71;
    217 	222 	0.0135 	0.1053 0.2212 	600 	625 	625 	0 		0 		1      0 0 0 0 0 0 0 0 0 0 0 0 72;
    218 	221 	0.0033 	0.0259 0.0545 	600 	625 	625 	0 		0 		1      0 0 0 0 0 0 0 0 0 0 0 0 73;
    218 	221 	0.0033 	0.0259 0.0545 	600 	625 	625 	0 		0 		1      0 0 0 0 0 0 0 0 0 0 0 0 74;
    219 	220	 	0.0051 	0.0396 0.0833 	600 	625 	625 	0 		0 		1      0 0 0 0 0 0 0 0 0 0 0 0 75;
    219 	220 	0.0051 	0.0396 0.0833 	600 	625 	625 	0 		0 		1      0 0 0 0 0 0 0 0 0 0 0 0 76;
    220 	223 	0.0028 	0.0216 0.0455 	600 	625 	625 	0 		0 		1      0 0 0 0 0 0 0 0 0 0 0 0 77;
    220 	223 	0.0028 	0.0216 0.0455 	600 	625 	625 	0 		0 		1      0 0 0 0 0 0 0 0 0 0 0 0 78;
    221 	222 	0.0087 	0.0678 0.1424 	600 	625 	625 	0 		0 		1      0 0 0 0 0 0 0 0 0 0 0 0 79;     
    301 	302 	0.0026 	0.0139 0.4611 	193 	200 	200 	0 		0 		1      0 0 0 0 0 0 0 0 0 0 0 0 80;
    301 	303 	0.0546 	0.2112 0.0572 	208 	220 	220 	0 		0 		1      0 0 0 0 0 0 0 0 0 0 0 0 81;
    301 	305 	0.0218 	0.0845 0.0229 	208 	220 	220 	0 		0 		1      0 0 0 0 0 0 0 0 0 0 0 0 82;
    302 	304 	0.0328 	0.1267 0.0343 	208 	220 	220 	0 		0 		1      0 0 0 0 0 0 0 0 0 0 0 0 83;
    302 	306 	0.0497 	0.1920 0.0520 	208 	220 	220 	0 		0 		1      0 0 0 0 0 0 0 0 0 0 0 0 84;
    303 	309 	0.0308 	0.1190 0.0322 	208 	220 	220 	0 		0 		1      0 0 0 0 0 0 0 0 0 0 0 0 85;
    303 	324 	0.0023 	0.0839 0.0000 	510 	600 	600 	1.015 	0 		1      0 0 0 0 0 0 0 0 0 0 0 0 86;
    304 	309 	0.0268 	0.1037 0.0281 	208 	220 	220 	0 		0 		1      0 0 0 0 0 0 0 0 0 0 0 0 87;
    305 	310 	0.0228 	0.0883 0.0239 	208 	220 	220 	0 		0 		1      0 0 0 0 0 0 0 0 0 0 0 0 88;
    306 	310 	0.0139 	0.0605 2.4590 	193 	200 	200 	0 		0 		1      0 0 0 0 0 0 0 0 0 0 0 0 89;
    307 	308 	0.0159 	0.0614 0.0166 	208 	220 	220 	0 		0 		1      0 0 0 0 0 0 0 0 0 0 0 0 90;
    308 	309 	0.0427 	0.1651 0.0447 	208 	220 	220 	0 		0 		1      0 0 0 0 0 0 0 0 0 0 0 0 91;
    308 	310 	0.0427 	0.1651 0.0447 	208 	220 	220 	0 		0 		1      0 0 0 0 0 0 0 0 0 0 0 0 92;
    309 	311 	0.0023 	0.0839 0.0000 	510 	600 	600 	1.03 	0 		1      0 0 0 0 0 0 0 0 0 0 0 0 93;
    309 	312 	0.0023 	0.0839 0.0000 	510 	600 	600 	1.03 	0 		1      0 0 0 0 0 0 0 0 0 0 0 0 94;
    310 	311 	0.0023 	0.0839 0.0000 	510 	600 	600 	1.015 	0 		1      0 0 0 0 0 0 0 0 0 0 0 0 95;
    310 	312 	0.0023 	0.0839 0.0000 	510 	600 	600 	1.015 	0 		1      0 0 0 0 0 0 0 0 0 0 0 0 96;
    311 	313 	0.0061 	0.0476 0.0999 	600 	625 	625 	0 		0 		1      0 0 0 0 0 0 0 0 0 0 0 0 97;
    311 	314 	0.0054 	0.0418 0.0879 	600 	625 	625 	0 		0 		1      0 0 0 0 0 0 0 0 0 0 0 0 98;
    312 	313 	0.0061 	0.0476 0.0999 	600 	625 	625 	0 		0 		1      0 0 0 0 0 0 0 0 0 0 0 0 99;
    312 	323 	0.0124 	0.0966 0.2030 	600		625 	625 	0 		0 		1      0 0 0 0 0 0 0 0 0 0 0 0 100;
    313 	323 	0.0111 	0.0865 0.1818 	600 	625 	625 	0 		0 		1      0 0 0 0 0 0 0 0 0 0 0 0 101;
    314		316 	0.0050 	0.0389 0.0818 	600 	625 	625 	0 		0 		1      0 0 0 0 0 0 0 0 0 0 0 0 102;
    315	 	316 	0.0022 	0.0173 0.0364 	600 	625 	625 	0 		0 		1      0 0 0 0 0 0 0 0 0 0 0 0 103;
    315	 	321 	0.0063 	0.0490 0.1030 	600 	625 	625 	0 		0 		1      0 0 0 0 0 0 0 0 0 0 0 0 104;
    315 	321 	0.0063 	0.0490 0.1030 	600 	625 	625 	0 		0 		1      0 0 0 0 0 0 0 0 0 0 0 0 105;
    315 	324 	0.0067 	0.0519 0.1091 	600 	625 	625 	0 		0 		1      0 0 0 0 0 0 0 0 0 0 0 0 106;
    316 	317 	0.0033 	0.0259 0.0545 	600 	625 	625	 	0 		0 		1      0 0 0 0 0 0 0 0 0 0 0 0 107;
    316 	319 	0.0030 	0.0231 0.0485 	600 	625 	625 	0 		0 		1      0 0 0 0 0 0 0 0 0 0 0 0 108;
    317 	318 	0.0018 	0.0144 0.0303 	600 	625 	625 	0 		0 		1      0 0 0 0 0 0 0 0 0 0 0 0 109;
    317 	322 	0.0135 	0.1053 0.2212 	600 	625 	625 	0 		0 		1      0 0 0 0 0 0 0 0 0 0 0 0 110;
    318 	321 	0.0033 	0.0259 0.0545 	600 	625 	625 	0	 	0 		1      0 0 0 0 0 0 0 0 0 0 0 0 111;
    318 	321 	0.0033 	0.0259 0.0545 	600 	625 	625 	0 		0 		1      0 0 0 0 0 0 0 0 0 0 0 0 112;
    319 	320 	0.0051 	0.0396 0.0833 	600 	625 	625 	0	 	0 		1      0 0 0 0 0 0 0 0 0 0 0 0 113;
    319 	320 	0.0051 	0.0396 0.0833 	600 	625 	625 	0 		0 		1      0 0 0 0 0 0 0 0 0 0 0 0 114;
    320 	323 	0.0028 	0.0216 0.0455 	600 	625 	625 	0 		0 		1      0 0 0 0 0 0 0 0 0 0 0 0 115;
    320	 	323 	0.0028 	0.0216 0.0455 	600 	625 	625 	0 		0 		1      0 0 0 0 0 0 0 0 0 0 0 0 116;
    321 	322 	0.0087 	0.0678 0.1424 	600 	625 	625 	0 		0 		1      0 0 0 0 0 0 0 0 0 0 0 0 117;
    325 	121 	0.0120 	0.0970 0.2030 	600 	625 	625 	0 		0	 	1      0 0 0 0 0 0 0 0 0 0 0 0 118;
    318 	223 	0.0130 	0.1040 0.2180 	600 	625 	625 	0 		0 		1      0 0 0 0 0 0 0 0 0 0 0 0 119;
    323 	325 	0.0000 	0.0090 0.0000 	893 	893 	893 	1 		0 		1      0 0 0 0 0 0 0 0 0 0 0 0 120;   
];


ps.gen = [...
%	bus	Pg		Qg		Qmax	Qmin	Vsp		mBase	status	Pmax   Pmin mu_Px mu_Pn mu_Qx mu_Qn type cost part_fact RRU RRD id
    101 10 		0 		10 		0 		1.035 	24 		1 		20 		0     0 0 0 0 2 0.3 0 0 0 1;
    101 10 		0 		10 		0 		1.035 	24 		1 		20 		0     0 0 0 0 2 0.3 0 0 0 2;
    101 76 		14.1 	30 		-25 	1.035 	89 		1 		76 		0     0 0 0 0 2 0.3 0 0 0 3;
    101 76 		14.1 	30 		-25 	1.035 	89 		1 		76 		0     0 0 0 0 2 0.3 0 0 0 4;
    102 10 		0 		10 		0 		1.035 	24 		1 		20 		0     0 0 0 0 2 0.3 0 0 0 5;
    102 10 		0 		10 		0 		1.035 	24 		1 		20 		0     0 0 0 0 2 0.3 0 0 0 6;
    102 76 		7 		30 		-25 	1.035 	89 		1 		76 		0     0 0 0 0 2 0.3 0 0 0 7;
    102 76 		7 		30 		-25 	1.035 	89 		1 		76 		0     0 0 0 0 2 0.3 0 0 0 8;
    107 80		17.2 	60 		0 		1.025 	118 	1 		100 	0     0 0 0 0 2 0.3 0 0 0 9;
    107 80 		17.2 	60 		0 		1.025 	118 	1 		100 	0     0 0 0 0 2 0.3 0 0 0 10;
    107 80 		17.2 	60 		0 		1.025 	118 	1 		100 	0     0 0 0 0 2 0.3 0 0 0 11;
    113 95.1 	40.7 	80 		0 		1.020 	232 	1 		197 	0     0 0 0 0 3 0.3 0 0 0 12;
    113 95.1 	40.7 	80 		0 		1.020 	232 	1 		197 	0     0 0 0 0 3 0.3 0 0 0 13;
    113 95.1 	40.7 	80 		0 		1.020 	232 	1 		197 	0     0 0 0 0 3 0.3 0 0 0 14; 
    114 0 		13.7 	200 	-50 	0.980 	100		1 		0		0     0 0 0 0 2 0.3 0 0 0 15; 
    115 12 		0 		6 		0 		1.014 	14 		1 		12 		0     0 0 0 0 2 0.3 0 0 0 16;
    115 12 		0 		6 		0 		1.014 	14 		1 		12 		0     0 0 0 0 2 0.3 0 0 0 17;
    115 12 		0 		6 		0 		1.014 	14 		1 		12 		0     0 0 0 0 2 0.3 0 0 0 18;
    115 12 		0 		6 		0 		1.014 	14 		1 		12 		0     0 0 0 0 2 0.3 0 0 0 19;
    115 12 		0 		6 		0 		1.014 	14 		1 		12 		0     0 0 0 0 2 0.3 0 0 0 20;
    115 155 	0.05 	80 		-50 	1.014 	182 	1 		155 	0     0 0 0 0 2 0.3 0 0 0 21;
    116 155 	25.22 	80 		-50 	1.017 	182 	1 		155 	0     0 0 0 0 2 0.3 0 0 0 22;
    118 400 	137.4 	200 	-50 	1.050 	471 	1 		400 	0     0 0 0 0 2 0.3 0 0 0 23;
    121 400 	108.2 	200 	-50 	1.050 	471 	1 		400 	0     0 0 0 0 2 0.3 0 0 0 24;
    122 50 		-4.96 	16 		-10 	1.050 	53 		1 		50 		0     0 0 0 0 2 0.3 0 0 0 25;
    122 50 		-4.96 	16 		-10 	1.050 	53 		1 		50 		0     0 0 0 0 2 0.3 0 0 0 26;
    122 50 		-4.96 	16 		-10 	1.050 	53 		1 		50 		0     0 0 0 0 2 0.3 0 0 0 27;
    122 50 		-4.96 	16 		-10 	1.050 	53 		1 		50 		0     0 0 0 0 2 0.3 0 0 0 28;
    122 50 		-4.96 	16 		-10 	1.050 	53 		1 		50 		0     0 0 0 0 2 0.3 0 0 0 29;
    122 50 		-4.96 	16 		-10 	1.050 	53 		1 		50 		0     0 0 0 0 2 0.3 0 0 0 30;
    123 155 	31.79 	80 		-50 	1.050 	182 	1 		155 	0     0 0 0 0 2 0.3 0 0 0 31;
    123 155 	31.79 	80 		-50 	1.050 	182 	1 		155 	0     0 0 0 0 2 0.3 0 0 0 32;
    123 350 	71.78 	150 	-25 	1.050 	412 	1 		350 	0     0 0 0 0 2 0.3 0 0 0 33;   
    201 10 		0 		10 		0 		1.035 	24 		1 		20 		0     0 0 0 0 2 0.3 0 0 0 34;
    201 10 		0 		10 		0 		1.035 	24 		1 		20 		0     0 0 0 0 2 0.3 0 0 0 35;
    201 76 		14.1 	30 		-25 	1.035 	89 		1 		76 		0     0 0 0 0 2 0.3 0 0 0 36;
    201 76 		14.1 	30 		-25 	1.035 	89 		1 		76 		0     0 0 0 0 2 0.3 0 0 0 37;
    202 10 		0 		10 		0 		1.035 	24 		1 		20 		0     0 0 0 0 2 0.3 0 0 0 38;
    202 10 		0 		10 		0 		1.035 	24 		1 		20 		0     0 0 0 0 2 0.3 0 0 0 39;
    202 76 		7 		30 		-25 	1.035 	89 		1 		76 		0     0 0 0 0 2 0.3 0 0 0 40;
    202 76 		7 		30 		-25 	1.035 	89 		1	 	76		0     0 0 0 0 2 0.3 0 0 0 41;
    207 80 		17.2 	60 		0 		1.025 	118 	1 		100 	0     0 0 0 0 2 0.3 0 0 0 42;
    207 80 		17.2 	60 		0 		1.025 	118 	1 		100 	0     0 0 0 0 2 0.3 0 0 0 43;
    207 80 		17.2 	60 		0 		1.025 	118 	1 		100		0     0 0 0 0 2 0.3 0 0 0 44;
    213 95.1 	40.7 	80 		0 		1.020 	232 	1 		197 	0     0 0 0 0 2 0.3 0 0 0 45;
    213 95.1 	40.7 	80 		0 		1.020 	232 	1		197 	0     0 0 0 0 2 0.3 0 0 0 46;
    213 95.1 	40.7 	80 		0 		1.020 	232 	1		197 	0     0 0 0 0 2 0.3 0 0 0 47;
    214 0 		13.68	200		-50 	0.980 	100 	1 		0 		0     0 0 0 0 2 0.3 0 0 0 48; 
    215 12  	0 		6 		0 		1.014 	14 		1 		12 		0     0 0 0 0 2 0.3 0 0 0 49;
    215 12  	0 		6 		0 		1.014 	14 		1 		12 		0     0 0 0 0 2 0.3 0 0 0 50;
    215 12  	0		6 		0 		1.014 	14 		1 		12 		0     0 0 0 0 2 0.3 0 0 0 51;
    215 12  	0 		6 		0 		1.014 	14 		1 		12 		0     0 0 0 0 2 0.3 0 0 0 52;
    215 12  	0 		6 		0 		1.014 	14 		1 		12 		0     0 0 0 0 2 0.3 0 0 0 53;
    215 155 	0.048 	80 		-50 	1.014 	182 	1 		155 	0     0 0 0 0 2 0.3 0 0 0 54;
    216 155 	25.22 	80 		-50 	1.017 	182 	1 		155 	0     0 0 0 0 2 0.3 0 0 0 55;
    218 400 	137.4 	200 	-50 	1.050 	471 	1 		400 	0     0 0 0 0 2 0.3 0 0 0 56;
    221 400 	108.2 	200 	-50 	1.050 	471 	1 		400 	0     0 0 0 0 2 0.3 0 0 0 57;
    222 50 		-4.96 	16 		-10 	1.050 	53 		1 		50 		0     0 0 0 0 2 0.3 0 0 0 58;
    222 50 		-4.96 	16 		-10 	1.050 	53 		1 		50 		0     0 0 0 0 2 0.3 0 0 0 59;
    222 50 		-4.96 	16 		-10 	1.050 	53 		1 		50		0     0 0 0 0 2 0.3 0 0 0 60;
    222 50 		-4.96 	16 		-10 	1.050 	53 		1 		50 		0     0 0 0 0 2 0.3 0 0 0 61;
    222 50 		-4.96 	16 		-10 	1.050 	53 		1 		50 		0     0 0 0 0 2 0.3 0 0 0 62;
    222 50 		-4.96 	16 		-10 	1.050 	53 		1 		50 		0     0 0 0 0 2 0.3 0 0 0 63;
    223 155 	31.79 	80 		-50 	1.050 	182 	1 		155 	0     0 0 0 0 2 0.3 0 0 0 64;
    223 155 	31.79 	80 		-50 	1.050 	182 	1 		155 	0     0 0 0 0 2 0.3 0 0 0 65;
    223 350 	71.78 	150 	-25 	1.050	412 	1	 	350 	0     0 0 0 0 2 0.3 0 0 0 66;
    301 10 		0 		10 		0 		1.035 	24 		1 		20 		0     0 0 0 0 2 0.3 0 0 0 67;
    301 10 		0 		10 		0 		1.035 	24 		1 		20 		0     0 0 0 0 2 0.3 0 0 0 68;
    301 76 		14.1 	30 		-25 	1.035 	89 		1 		76 		0     0 0 0 0 2 0.3 0 0 0 69;
    301 76 		14.1 	30 		-25 	1.035 	89 		1 		76 		0     0 0 0 0 2 0.3 0 0 0 70;
    302 10 		0 		10 		0 		1.035 	24 		1 		20 		0     0 0 0 0 2 0.3 0 0 0 71;
    302 10 		0 		10 		0 		1.035 	24 		1 		20	 	0     0 0 0 0 2 0.3 0 0 0 72;
    302 76 		7 		30 		-25 	1.035 	89 		1 		76 		0     0 0 0 0 2 0.3 0 0 0 73;		
    302 76 		7 		30 		-25 	1.035 	89 		1 		76 		0     0 0 0 0 2 0.3 0 0 0 74;
    307 80 		17.2 	60 		0 		1.025 	118 	1 		100 	0     0 0 0 0 2 0.3 0 0 0 75;
    307 80 		17.2 	60 		0 		1.025 	118 	1 		100 	0     0 0 0 0 2 0.3 0 0 0 76;
    307 80 		17.2 	60 		0 		1.025 	118 	1 		100 	0     0 0 0 0 2 0.3 0 0 0 77;
    313 95.1 	40.7 	80 		0 		1.020 	232 	1 		197 	0     0 0 0 0 2 0.3 0 0 0 78;
    313 95.1 	40.7 	80 		0 		1.020 	232 	1 		197 	0     0 0 0 0 2 0.3 0 0 0 79;
    313 95.1 	40.7 	80 		0 		1.020 	232 	1 		197 	0     0 0 0 0 2 0.3 0 0 0 80;
    314 0 		13.68 	200 	-50 	0.98	100	 	1 		0 		0     0 0 0 0 2 0.3 0 0 0 81; 
    315 12  	0 		6 		0 		1.014 	14 		1 		12 		0     0 0 0 0 2 0.3 0 0 0 82;
    315 12  	0 		6 		0 		1.014 	14 		1 		12 		0     0 0 0 0 2 0.3 0 0 0 83;
    315 12  	0 		6 		0 		1.014 	14 		1 		12 		0     0 0 0 0 2 0.3 0 0 0 84;
    315 12  	0 		6 		0 		1.014 	14 		1 		12 		0     0 0 0 0 2 0.3 0 0 0 85;
    315 12  	0 		6 		0 		1.014 	14 		1 		12 		0     0 0 0 0 2 0.3 0 0 0 86;
    315 155 	0.048 	80 		-50 	1.014 	182 	1 		155 	0     0 0 0 0 2 0.3 0 0 0 87;
    316 155 	25.22 	80 		-50 	1.017 	182 	1 		155 	0     0 0 0 0 2 0.3 0 0 0 88;
    318 400 	137.4 	200 	-50 	1.050 	471 	1 		400 	0     0 0 0 0 2 0.3 0 0 0 89;
    321 400 	108.2 	200 	-50 	1.050 	471 	1 		400 	0     0 0 0 0 2 0.3 0 0 0 90;
    322 50 		-4.96 	16 		-10 	1.050 	53 		1 		50 		0     0 0 0 0 2 0.3 0 0 0 91;
    322 50 		-4.96 	16 		-10 	1.050 	53 		1 		50 		0     0 0 0 0 2 0.3 0 0 0 92;
    322 50 		-4.96 	16 		-10 	1.050 	53 		1 		50 		0     0 0 0 0 2 0.3 0 0 0 93;
    322 50 		-4.96 	16 		-10 	1.050 	53 		1 		50 		0     0 0 0 0 2 0.3 0 0 0 94;
    322 50 		-4.96 	16 		-10 	1.050 	53 		1 		50 		0     0 0 0 0 2 0.3 0 0 0 95;
    322 50 		-4.96 	16 		-10 	1.050 	53 		1 		50 		0     0 0 0 0 2 0.3 0 0 0 96;
    323 155 	31.79 	80 		-50 	1.050 	182 	1 		155 	0     0 0 0 0 2 0.3 0 0 0 97;
    323 155 	31.79 	80 		-50 	1.050 	182 	1 		155 	0     0 0 0 0 2 0.3 0 0 0 98;
    323 350 	71.78 	150 	-25 	1.050 	412 	1 		350 	0     0 0 0 0 2 0.3 0 0 0 99;
];


% for each island assuming demand is 2000 MW
ps.shunt = [...  
%bus P   Q    frac_S frac_Z status type value frac_E lambda frac_dyn Zst_P Zlt_P Zst_Q Zlt_Q Tst_P Tlt_P Tst_Q Tlt_Q alpha_st_P alpha_lt_P alpha_st_Q alpha_lt_Q near_genID id
 101 114 22.8 0      0      1      1    1000  1      0.08   0 0 0 0 0                        0.01  10    0.01  8     1.8        0.6        5.3        4 0 1;
 102 102 20.4 0      0      1      1    1000  1      0.08   0 0 0 0 0                        0.01  10    0.01  8     1.8        0.6        5.3        4 0 2;
 103 189 37.8 0      0      1      1    1000  1      0.08   0 0 0 0 0                        0.01  10    0.01  8     1.8        0.6        5.3        4 0 3;
 104 78  15.6 0      0      1      1    1000  1      0.08   0 0 0 0 0                        0.01  10    0.01  8     1.8        0.6        5.3        4 0 4;
 105 75  15   0      0      1      1    1000  1      0.08   0 0 0 0 0                        0.01  10    0.01  8     1.8        0.6        5.3        4 0 5;
 106 144 28.8 0      0      1      1    1000  1      0.08   0 0 0 0 0                        0.01  10    0.01  8     1.8        0.6        5.3        4 0 6;
 107 132 26.4 0      0      1      1    1000  1      0.08   0 0 0 0 0                        0.01  10    0.01  8     1.8        0.6        5.3        4 0 7;
 108 180 36   0      0      1      1    1000  1      0.08   0 0 0 0 0                        0.01  10    0.01  8     1.8        0.6        5.3        4 0 8;
 109 183 36.6 0      0      1      1    1000  1      0.08   0 0 0 0 0                        0.01  10    0.01  8     1.8        0.6        5.3        4 0 9;
 110 204 40.8 0      0      1      1    1000  1      0.08   0 0 0 0 0                        0.01  10    0.01  8     1.8        0.6        5.3        4 0 10;
 113 279 55.8 0      0      1      1    1000  1      0.08   0 0 0 0 0                        0.01  10    0.01  8     1.8        0.6        5.3        4 0 11;
 114 204 40.8 0      0      1      1    1000  1      0.08   0 0 0 0 0                        0.01  10    0.01  8     1.8        0.6        5.3        4 0 12;
 115 333 66.6 0      0      1      1    1000  1      0.08   0 0 0 0 0                        0.01  10    0.01  8     1.8        0.6        5.3        4 0 13;
 116 105 21   0      0      1      1    1000  1      0.08   0 0 0 0 0                        0.01  10    0.01  8     1.8        0.6        5.3        4 0 14;
 118 351 70.2 0      0      1      1    1000  1      0.08   0 0 0 0 0                        0.01  10    0.01  8     1.8        0.6        5.3        4 0 15;
 119 192 38.4 0      0      1      1    1000  1      0.08   0 0 0 0 0                        0.01  10    0.01  8     1.8        0.6        5.3        4 0 16;
 120 135 27   0      0      1      1    1000  1      0.08   0 0 0 0 0                        0.01  10    0.01  8     1.8        0.6        5.3        4 0 17;
 201 114 22.8 0      0      1      1    1000  1      0.08   0 0 0 0 0                        0.01  10    0.01  8     1.8        0.6        5.3        4 0 18;
 202 102 20.4 0      0      1      1    1000  1      0.08   0 0 0 0 0                        0.01  10    0.01  8     1.8        0.6        5.3        4 0 19;
 203 189 37.8 0      0      1      1    1000  1      0.08   0 0 0 0 0                        0.01  10    0.01  8     1.8        0.6        5.3        4 0 20;
 204 78  15.6 0      0      1      1    1000  1      0.08   0 0 0 0 0                        0.01  10    0.01  8     1.8        0.6        5.3        4 0 21;
 205 75  15   0      0      1      1    1000  1      0.08   0 0 0 0 0                        0.01  10    0.01  8     1.8        0.6        5.3        4 0 22;
 206 144 28.8 0      0      1      1    1000  1      0.08   0 0 0 0 0                        0.01  10    0.01  8     1.8        0.6        5.3        4 0 23;
 207 132 26.4 0      0      1      1    1000  1      0.08   0 0 0 0 0                        0.01  10    0.01  8     1.8        0.6        5.3        4 0 24;
 208 180 36   0      0      1      1    1000  1      0.08   0 0 0 0 0                        0.01  10    0.01  8     1.8        0.6        5.3        4 0 25;
 209 183 36.6 0      0      1      1    1000  1      0.08   0 0 0 0 0                        0.01  10    0.01  8     1.8        0.6        5.3        4 0 26;
 210 204 40.8 0      0      1      1    1000  1      0.08   0 0 0 0 0                        0.01  10    0.01  8     1.8        0.6        5.3        4 0 27;
 213 279 55.8 0      0      1      1    1000  1      0.08   0 0 0 0 0                        0.01  10    0.01  8     1.8        0.6        5.3        4 0 28;
 214 204 40.8 0      0      1      1    1000  1      0.08   0 0 0 0 0                        0.01  10    0.01  8     1.8        0.6        5.3        4 0 29;
 215 333 66.6 0      0      1      1    1000  1      0.08   0 0 0 0 0                        0.01  10    0.01  8     1.8        0.6        5.3        4 0 30;
 216 105 21   0      0      1      1    1000  1      0.08   0 0 0 0 0                        0.01  10    0.01  8     1.8        0.6        5.3        4 0 31;
 218 351 70.2 0      0      1      1    1000  1      0.08   0 0 0 0 0                        0.01  10    0.01  8     1.8        0.6        5.3        4 0 32;
 219 192 38.4 0      0      1      1    1000  1      0.08   0 0 0 0 0                        0.01  10    0.01  8     1.8        0.6        5.3        4 0 33;
 220 135 27   0      0      1      1    1000  1      0.08   0 0 0 0 0                        0.01  10    0.01  8     1.8        0.6        5.3        4 0 34;
 301 114 22.8 0      0      1      1    1000  1      0.08   0 0 0 0 0                        0.01  10    0.01  8     1.8        0.6        5.3        4 0 35;
 302 102 20.4 0      0      1      1    1000  1      0.08   0 0 0 0 0                        0.01  10    0.01  8     1.8        0.6        5.3        4 0 36;
 303 189 37.8 0      0      1      1    1000  1      0.08   0 0 0 0 0                        0.01  10    0.01  8     1.8        0.6        5.3        4 0 37;
 304 78  15.6 0      0      1      1    1000  1      0.08   0 0 0 0 0                        0.01  10    0.01  8     1.8        0.6        5.3        4 0 38;
 305 75  15   0      0      1      1    1000  1      0.08   0 0 0 0 0                        0.01  10    0.01  8     1.8        0.6        5.3        4 0 39;
 306 144 28.8 0      0      1      1    1000  1      0.08   0 0 0 0 0                        0.01  10    0.01  8     1.8        0.6        5.3        4 0 40;
 307 132 26.4 0      0      1      1    1000  1      0.08   0 0 0 0 0                        0.01  10    0.01  8     1.8        0.6        5.3        4 0 41;
 308 180 36   0      0      1      1    1000  1      0.08   0 0 0 0 0                        0.01  10    0.01  8     1.8        0.6        5.3        4 0 42;
 309 183 36.6 0      0      1      1    1000  1      0.08   0 0 0 0 0                        0.01  10    0.01  8     1.8        0.6        5.3        4 0 43;
 310 204 40.8 0      0      1      1    1000  1      0.08   0 0 0 0 0                        0.01  10    0.01  8     1.8        0.6        5.3        4 0 44;
 313 279 55.8 0      0      1      1    1000  1      0.08   0 0 0 0 0                        0.01  10    0.01  8     1.8        0.6        5.3        4 0 45;
 314 204 40.8 0      0      1      1    1000  1      0.08   0 0 0 0 0                        0.01  10    0.01  8     1.8        0.6        5.3        4 0 46;
 315 333 66.6 0      0      1      1    1000  1      0.08   0 0 0 0 0                        0.01  10    0.01  8     1.8        0.6        5.3        4 0 47;
 316 105 21   0      0      1      1    1000  1      0.08   0 0 0 0 0                        0.01  10    0.01  8     1.8        0.6        5.3        4 0 48;
 318 351 70.2 0      0      1      1    1000  1      0.08   0 0 0 0 0                        0.01  10    0.01  8     1.8        0.6        5.3        4 0 49;
 319 192 38.4 0      0      1      1    1000  1      0.08   0 0 0 0 0                        0.01  10    0.01  8     1.8        0.6        5.3        4 0 50;
 320 135 27   0      0      1      1    1000  1      0.08   0 0 0 0 0                        0.01  10    0.01  8     1.8        0.6        5.3        4 0 51;
];


ps.exc = [...
%gen type Ka Ta Tb Ke  Te  Urmax Urmin Vref Efd E1 
101 1 0 0.8649 9.7734 117.9109 0.0856 5 -5;
102 1 0 1.1885 8.1021 105.4949 0.0892 5 -5;
107 1 0 0.8196 8.9329 99.9048 0.0831 5 -5;
113 1 0 1.0802 11.1170 87.5649 0.1145 5 -5;
114 1 0 1.0608 8.6799 110.3926 0.1035 5 -5;
115 1 0 0.8186 9.6583 94.8477 0.1158 5 -5;
116 1 0 0.8789 10.3792 88.3709 0.0999 5 -5;
118 1 0 0.9322 11.6435 92.9024 0.1112 5 -5;
121 1 0 1.1011 10.0256 88.2469 0.0851 5 -5;
122 1 0 0.9460 9.7545 96.3947 0.1045 5 -5;
123 1 0 1.0123 8.1292 85.4195 0.1164 5 -5;
201 1 0 0.9417 8.9136 112.6562 0.1003 5 -5;
202 1 0 1.0059 8.7264 105.5313 0.0984 5 -5;
207 1 0 0.9047 8.9702 107.0325 0.1088 5 -5;
213 1 0 1.1407 11.2378 80.3416 0.0816 5 -5;
214 1 0 1.0493 10.0772 109.5002 0.1088 5 -5;
215 1 0 0.9218 9.4745 110.6868 0.0916 5 -5;
216 1 0 1.1102 9.8494 86.4894 0.0996 5 -5;
218 1 0 1.1582 10.4195 118.4275 0.1149 5 -5;
221 1 0 1.0950 10.2295 111.9146 0.0876 5 -5;
222 1 0 1.1422 8.1322 103.3647 0.1058 5 -5;
223 1 0 1.1281 9.5961 81.7009 0.0993 5 -5;
301 1 0 1.1461 8.3333 93.7075 0.1115 5 -5;
302 1 0 0.9529 9.9327 94.7070 0.1024 5 -5;
307 1 0 1.0446 11.4261 115.4240 0.0915 5 -5;
313 1 0 0.9662 11.3910 85.0023 0.0873 5 -5;
314 1 0 0.8969 9.4814 87.9494 0.1003 5 -5;
315 1 0 0.8245 10.8725 118.3080 0.1061 5 -5;
316 1 0 1.1270 8.0184 100.7316 0.1084 5 -5;
318 1 0 0.9535 11.0568 99.8177 0.0954 5 -5;
321 1 0 1.1915 10.9868 89.4631 0.0908 5 -5;
322 1 0 0.9527 11.4357 116.8110 0.0911 5 -5;
323 1 0 1.0520 9.8271 82.5181 0.1157 5 -5;
];


ps.mac = [...
 %bus r Xd Xdp Xdpp Xq Xqp Xqpp D M Ea Eap Pm delta_m omega Td0 Td0p
 101 0 0.4645 0.1441 0 0.4461 0.1452 0 23.4437 46.8874 0 0 0 0 0 0 6;
 102 0 0.3806 0.1181 0 0.3622 0.1179 0 23.5180 47.0361 0 0 0 0 0 0 6;
 107 0 0.1625 0.0504 0 0.1441 0.0469 0 23.0379 46.0757 0 0 0 0 0 0 6;
 113 0 0.2988 0.0927 0 0.2804 0.0912 0 20.5927 41.1853 0 0 0 0 0 0 6;
 114 0 0.4907 0.1522 0 0.4722 0.1537 0 20.1769 40.3537 0 0 0 0 0 0 6;
 115 0 0.3555 0.1103 0 0.3371 0.1097 0 22.9521 45.9042 0 0 0 0 0 0 6;
 116 0 0.1913 0.0594 0 0.1729 0.0563 0 21.1303 42.2606 0 0 0 0 0 0 6;
 118 0 0.5268 0.1634 0 0.5083 0.1654 0 24.4479 48.8958 0 0 0 0 0 0 6;
 121 0 0.5777 0.1792 0 0.5593 0.1820 0 22.4002 44.8004 0 0 0 0 0 0 6;
 122 0 0.5921 0.1837 0 0.5737 0.1867 0 20.2663 40.5326 0 0 0 0 0 0 6;
 123 0 0.1964 0.0609 0 0.1779 0.0579 0 23.1444 46.2888 0 0 0 0 0 0 6;
 201 0 0.5854 0.1816 0 0.5670 0.1845 0 22.8223 45.6446 0 0 0 0 0 0 6;
 202 0 0.2174 0.0674 0 0.1990 0.0648 0 24.0310 48.0620 0 0 0 0 0 0 6;
 207 0 0.1132 0.0351 0 0.0948 0.0308 0 20.7287 41.4573 0 0 0 0 0 0 6;
 213 0 0.5730 0.1778 0 0.5546 0.1805 0 22.7467 45.4934 0 0 0 0 0 0 6;
 214 0 0.5609 0.1740 0 0.5425 0.1765 0 21.4264 42.8529 0 0 0 0 0 0 6;
 215 0 0.2470 0.0766 0 0.2286 0.0744 0 23.4347 46.8694 0 0 0 0 0 0 6;
 216 0 0.1831 0.0568 0 0.1647 0.0536 0 20.7033 41.4065 0 0 0 0 0 0 6;
 218 0 0.2977 0.0924 0 0.2793 0.0909 0 24.1845 48.3690 0 0 0 0 0 0 6;
 221 0 0.3553 0.1102 0 0.3369 0.1096 0 22.2401 44.4803 0 0 0 0 0 0 6;
 222 0 0.2540 0.0788 0 0.2356 0.0767 0 23.7496 47.4991 0 0 0 0 0 0 6;
 223 0 0.3148 0.0977 0 0.2964 0.0965 0 21.0349 42.0697 0 0 0 0 0 0 6;
 301 0 0.5150 0.1598 0 0.4966 0.1616 0 20.4806 40.9613 0 0 0 0 0 0 6;
 302 0 0.3812 0.1183 0 0.3628 0.1181 0 23.0317 46.0633 0 0 0 0 0 0 6;
 307 0 0.5154 0.1599 0 0.4970 0.1618 0 22.6054 45.2108 0 0 0 0 0 0 6;
 313 0 0.5985 0.1857 0 0.5801 0.1888 0 23.9413 47.8826 0 0 0 0 0 0 6;
 314 0 0.2663 0.0826 0 0.2479 0.0807 0 24.4871 48.9741 0 0 0 0 0 0 6;
 315 0 0.1455 0.0451 0 0.1271 0.0414 0 21.2389 42.4778 0 0 0 0 0 0 6;
 316 0 0.4869 0.1510 0 0.4685 0.1525 0 23.3419 46.6837 0 0 0 0 0 0 6;
 318 0 0.1747 0.0542 0 0.1563 0.0509 0 21.2813 42.5626 0 0 0 0 0 0 6;
 321 0 0.4627 0.1435 0 0.4443 0.1446 0 23.2681 46.5362 0 0 0 0 0 0 6;
 322 0 0.5776 0.1792 0 0.5592 0.1820 0 22.2098 44.4196 0 0 0 0 0 0 6;
 323 0 0.1365 0.0424 0 0.1181 0.0384 0 23.9061 47.8121 0 0 0 0 0 0 6;
];


ps.gov = [...
 %gen type R Tt LCmax LCmin Pmax Pmin Pref Ti P3
 101 1 0.0440 1.6811 10 -10 39.7752 0 0 4.0078 0;
 102 1 0.0592 2.0900 10 -10 38.1164 0 0 4.0006 0;
 107 1 0.0492 1.8824 10 -10 39.1918 0 0 4.0006 0;
 113 1 0.0489 1.6818 10 -10 39.0381 0 0 4.0148 0;
 114 1 0.0497 2.3935 10 -10 38.3546 0 0 4.0121 0;
 115 1 0.0437 2.0333 10 -10 38.9274 0 0 4.0070 0;
 116 1 0.0505 2.3369 10 -10 38.3783 0 0 4.0128 0;
 118 1 0.0506 1.6835 10 -10 39.3516 0 0 4.0191 0;
 121 1 0.0586 2.2286 10 -10 38.3382 0 0 4.0073 0;
 122 1 0.0579 1.6530 10 -10 38.9978 0 0 4.0014 0;
 123 1 0.0460 1.9717 10 -10 39.0171 0 0 4.0143 0;
 201 1 0.0458 2.3409 10 -10 38.8739 0 0 4.0063 0;
 202 1 0.0432 2.2147 10 -10 38.9746 0 0 4.0189 0;
 207 1 0.0466 1.9160 10 -10 39.8559 0 0 4.0102 0;
 213 1 0.0421 1.6551 10 -10 39.8078 0 0 4.0026 0;
 214 1 0.0540 1.8509 10 -10 38.4531 0 0 4.0051 0;
 215 1 0.0509 2.1769 10 -10 38.9213 0 0 4.0137 0;
 216 1 0.0447 1.9233 10 -10 39.3706 0 0 4.0136 0;
 218 1 0.0586 2.2672 10 -10 39.6697 0 0 4.0071 0;
 221 1 0.0539 2.3154 10 -10 39.8516 0 0 4.0073 0;
 222 1 0.0484 1.8903 10 -10 38.0498 0 0 4.0175 0;
 223 1 0.0562 1.8580 10 -10 39.3221 0 0 4.0197 0;
 301 1 0.0429 2.2798 10 -10 38.4986 0 0 4.0182 0;
 302 1 0.0481 1.9430 10 -10 39.9721 0 0 4.0144 0;
 307 1 0.0407 1.9754 10 -10 39.8869 0 0 4.0038 0;
 313 1 0.0450 2.2968 10 -10 39.3651 0 0 4.0020 0;
 314 1 0.0404 1.7734 10 -10 38.9174 0 0 4.0039 0;
 315 1 0.0546 2.3169 10 -10 39.5636 0 0 4.0146 0;
 316 1 0.0592 1.8478 10 -10 38.8700 0 0 4.0170 0;
 318 1 0.0412 2.0030 10 -10 38.2638 0 0 4.0013 0;
 321 1 0.0413 2.0390 10 -10 38.0235 0 0 4.0091 0;
 322 1 0.0477 2.3667 10 -10 39.4847 0 0 4.0015 0;
 323 1 0.0465 2.0473 10 -10 39.9545 0 0 4.0050 0;
];


ps.areas = [...
 1 1;
];


